LAMMPS (29 Aug 2024)
# Sample LAMMPS input script for viscosity of liquid Ar

units       real
variable    T equal 200.0       # run temperature
variable    Tinit equal 250.0   # equilibration temperature
variable    V equal vol
variable    dt equal 4.0
variable    p equal 400     # correlation length
variable    s equal 5       # sample interval
variable    d equal $p*$s   # dump interval
variable    d equal 400*$s
variable    d equal 400*5

# convert from LAMMPS real units to SI

variable    kB equal 1.3806504e-23    # [J/K] Boltzmann
variable    atm2Pa equal 101325.0
variable    A2m equal 1.0e-10
variable    fs2s equal 1.0e-15
variable    convert equal 101325*101325*1e-15*1e-10*1e-10*1e-10

# setup problem

dimension    3
boundary     p p p
lattice      fcc 5.376 orient x 1 0 0 orient y 0 1 0 orient z 0 0 1
Lattice spacing in x,y,z = 5.376 5.376 5.376
region       box block 0 4 0 4 0 4
create_box   1 box
Created orthogonal box = (0 0 0) to (21.504 21.504 21.504)
create_atoms 1 box
Created 256 atoms
mass         1 39.948
pair_style   lj/cut 13.0
pair_coeff   * * 0.2381 3.405
timestep     4
thermo       $d
thermo       2000
write_data system.data
System init for write_data ...
Generated 0 of 0 mixed pair_coeff terms from geometric mixing rule

# equilibration and thermalization
#dump outpdb all molfile 10 equil.pdb pdb .
velocity     all create 250 102486 mom yes rot yes dist gaussian
fix          NVT all nvt temp 250 250 10 drag 0.2
run          8000
Generated 0 of 0 mixed pair_coeff terms from geometric mixing rule
Step          Temp          E_pair         E_mol          TotEng         Press
0   250           -505.75228      0             -315.72564     -660.93588
Loop time of 2.02248 on 1 procs for 8000 steps with 256 atoms

#undump pdb

# viscosity calculation, switch to NVE if desired

velocity     all create $T 102486 mom yes rot yes dist gaussian
velocity     all create 200 102486 mom yes rot yes dist gaussian
fix          NVT all nvt temp $T $T 10 drag 0.2
fix          NVT all nvt temp 200 $T 10 drag 0.2
fix          NVT all nvt temp 200 200 10 drag 0.2
#unfix       NVT
#fix         NVE all nve

reset_timestep 0
variable     pxy equal pxy
variable     pxz equal pxz
variable     pyz equal pyz
fix          SS all ave/correlate $s $p $d              v_pxy v_pxz v_pyz type auto file S0St.dat ave running
fix          SS all ave/correlate 5 $p $d              v_pxy v_pxz v_pyz type auto file S0St.dat ave running
fix          SS all ave/correlate 5 400 $d              v_pxy v_pxz v_pyz type auto file S0St.dat ave running
fix          SS all ave/correlate 5 400 2000              v_pxy v_pxz v_pyz type auto file S0St.dat ave running
variable     scale equal 1.0266755625e-35/(1.3806504e-23*200)*9943.923032064*5*4
variable     v11 equal trap(f_SS[3])*7.39447348322284e-10
variable     v22 equal trap(f_SS[4])*7.39447348322284e-10
variable     v33 equal trap(f_SS[5])*7.39447348322284e-10
thermo_style custom step temp press v_pxy v_pxz v_pyz v_v11 v_v22 v_v33
dump h5md1 all h5md $d dump.h5md position velocity force
dump h5md1 all h5md 2000 dump.h5md position velocity force
dump_modify h5md1 unwrap yes # unwrap the coordinates
dump dcd1 all dcd $d dump.dcd
dump dcd1 all dcd 2000 dump.dcd
dump_modify dcd1 unwrap yes # unwrap the coordinates
run          100000
Generated 0 of 0 mixed pair_coeff terms from geometric mixing rule
Step          Temp          Press          v_pxy          v_pxz          v_pyz          v_v11          v_v22          v_v33
0   200            7066.7041      319.60155      6.2506333      56.723174      3.7765481e-05  1.4445258e-08  1.1895928e-06
Averages over the last 26 of 51 rows, steps 50000 to 100000:
Temp Press v_pxy v_pxz v_pyz v_v11 v_v22 v_v33
201.166 5894.18 -64.4804 50.7467 29.2227 0.000530884 0.000436424 0.000570204
Loop time of 23.7389 on 1 procs for 100000 steps with 256 atoms

variable     v equal (v_v11+v_v22+v_v33)/3.0
variable     ndens equal count(all)/vol
average viscosity: 0.000488009286555395 [Pa.s] @ 200 K, 0.0257443666020476 atoms/A^3
